Version 4
SHEET 1 880 680
WIRE 128 -64 -32 -64
WIRE 192 -64 128 -64
WIRE 320 -64 272 -64
WIRE 368 -64 320 -64
WIRE 480 -64 448 -64
WIRE -32 0 -32 -64
WIRE 128 0 128 -64
WIRE 320 0 320 -64
WIRE 480 0 480 -64
WIRE 320 128 320 80
WIRE -32 240 -32 80
WIRE 128 240 128 80
WIRE 128 240 -32 240
WIRE 224 240 128 240
WIRE 320 240 320 208
WIRE 320 240 224 240
WIRE 480 240 480 80
WIRE 480 240 320 240
WIRE 224 304 224 240
FLAG 224 304 0
SYMBOL current -32 80 R180
WINDOW 0 24 80 Left 2
WINDOW 3 24 0 Left 2
SYMATTR InstName I1
SYMATTR Value 3
SYMBOL res 112 -16 R0
SYMATTR InstName R1
SYMATTR Value 16
SYMBOL res 304 -16 R0
SYMATTR InstName R2
SYMATTR Value 5
SYMBOL res 464 -16 R0
SYMATTR InstName R3
SYMATTR Value 10
SYMBOL res 288 -80 R90
WINDOW 0 0 56 VBottom 2
WINDOW 3 32 56 VTop 2
SYMATTR InstName R4
SYMATTR Value 4
SYMBOL res 464 -80 R90
WINDOW 0 0 56 VBottom 2
WINDOW 3 32 56 VTop 2
SYMATTR InstName R5
SYMATTR Value 1
SYMBOL voltage 320 112 R0
SYMATTR InstName V1
SYMATTR Value 12
TEXT -82 250 Left 2 !.op
