Version 4
SHEET 1 880 680
WIRE 64 80 -48 80
WIRE 256 80 144 80
WIRE 432 80 336 80
WIRE -48 128 -48 80
WIRE 432 128 432 80
WIRE -48 240 -48 208
WIRE 192 240 -48 240
WIRE 432 240 432 192
WIRE 432 240 192 240
WIRE 192 256 192 240
FLAG 192 256 0
SYMBOL voltage -48 112 R0
WINDOW 123 24 124 Left 2
WINDOW 39 0 0 Left 0
SYMATTR InstName V1
SYMATTR Value SINE(0 100 50)
SYMATTR Value2 AC 100 0
SYMBOL res 160 64 R90
WINDOW 0 0 56 VBottom 2
WINDOW 3 32 56 VTop 2
SYMATTR InstName R1
SYMATTR Value 10
SYMBOL ind 240 96 R270
WINDOW 0 32 56 VTop 2
WINDOW 3 5 56 VBottom 2
SYMATTR InstName L1
SYMATTR Value 0.001
SYMBOL cap 416 128 R0
SYMATTR InstName C1
SYMATTR Value 1µ
TEXT -96 344 Left 2 !;ac lin 100 50 50
TEXT -96 304 Left 2 !.tran 40ms
