Version 4
SHEET 1 880 680
WIRE 416 -16 320 -16
WIRE 624 -16 496 -16
WIRE 320 48 320 -16
WIRE 320 48 272 48
WIRE 624 64 624 -16
WIRE 64 128 -48 128
WIRE 224 128 144 128
WIRE -48 192 -48 128
WIRE -48 320 -48 272
WIRE 272 320 272 144
WIRE 272 320 -48 320
WIRE 624 320 624 144
WIRE 624 320 272 320
WIRE 272 352 272 320
FLAG 272 352 0
SYMBOL nmos 224 48 R0
SYMATTR InstName M1
SYMBOL voltage -48 176 R0
SYMATTR InstName VGS
SYMATTR Value 10
SYMBOL res 160 112 R90
WINDOW 0 0 56 VBottom 2
WINDOW 3 32 56 VTop 2
SYMATTR InstName R1
SYMATTR Value 220
SYMBOL res 512 -32 R90
WINDOW 0 0 56 VBottom 2
WINDOW 3 32 56 VTop 2
SYMATTR InstName R2
SYMATTR Value 10
SYMBOL voltage 624 48 R0
SYMATTR InstName VDS
SYMATTR Value 20
TEXT -80 376 Left 2 !.dc 0 20 1  VGS 0 10 2
