Version 4
SHEET 1 1068 700
WIRE 768 96 624 96
WIRE 928 96 848 96
WIRE 128 112 -16 112
WIRE 288 112 208 112
WIRE 624 144 624 96
WIRE 928 144 928 96
WIRE -16 160 -16 112
WIRE 288 160 288 112
WIRE 624 256 624 224
WIRE 832 256 624 256
WIRE 928 256 928 224
WIRE 928 256 832 256
WIRE -16 272 -16 240
WIRE 192 272 -16 272
WIRE 288 272 288 240
WIRE 288 272 192 272
WIRE 832 288 832 256
WIRE 192 304 192 272
WIRE 432 448 288 448
WIRE 592 448 512 448
WIRE 288 496 288 448
WIRE 592 496 592 448
WIRE 288 608 288 576
WIRE 496 608 288 608
WIRE 592 608 592 576
WIRE 592 608 496 608
WIRE 496 640 496 608
FLAG 192 304 0
FLAG 832 288 0
FLAG 496 640 0
SYMBOL voltage -16 144 R0
SYMATTR InstName Vth
SYMATTR Value 19.2
SYMBOL res 224 96 R90
WINDOW 0 0 56 VBottom 2
WINDOW 3 32 56 VTop 2
SYMATTR InstName Rth
SYMATTR Value 5
SYMBOL res 272 144 R0
SYMATTR InstName RL
SYMATTR Value 5
SYMBOL voltage 624 128 R0
SYMATTR InstName Vth1
SYMATTR Value 19.2
SYMBOL res 864 80 R90
WINDOW 0 0 56 VBottom 2
WINDOW 3 32 56 VTop 2
SYMATTR InstName Rth1
SYMATTR Value 5
SYMBOL res 912 128 R0
SYMATTR InstName RL1
SYMATTR Value 2
SYMBOL voltage 288 480 R0
SYMATTR InstName Vth2
SYMATTR Value 19.2
SYMBOL res 528 432 R90
WINDOW 0 0 56 VBottom 2
WINDOW 3 32 56 VTop 2
SYMATTR InstName Rth2
SYMATTR Value 5
SYMBOL res 576 480 R0
SYMATTR InstName RL2
SYMATTR Value 100
TEXT -80 48 Left 2 ;Find current using thevenins theorom
TEXT 560 312 Left 2 !.op
TEXT 224 664 Left 2 !;op
TEXT -82 684 Left 2 !;dc Vth -10 10 1
