Version 4
SHEET 1 880 680
WIRE -128 -144 -288 -144
WIRE -16 -144 -128 -144
WIRE 64 -144 -16 -144
WIRE -288 -80 -288 -144
WIRE -128 -80 -128 -144
WIRE -128 -16 -128 -32
WIRE -288 32 -288 -16
WIRE -288 32 -608 32
WIRE -256 32 -288 32
WIRE -608 64 -608 32
WIRE -16 64 -16 -144
WIRE 64 128 64 -144
WIRE -608 176 -608 144
WIRE -480 176 -608 176
WIRE -608 192 -608 176
WIRE -480 240 -480 176
WIRE -608 368 -608 272
WIRE -128 368 -128 -16
WIRE -128 368 -608 368
WIRE -80 368 -128 368
WIRE -256 400 -256 32
WIRE -80 400 -80 368
WIRE -256 528 -256 464
WIRE -80 528 -80 464
WIRE -80 528 -256 528
WIRE -16 528 -16 128
WIRE -16 528 -80 528
WIRE 64 528 64 208
WIRE 64 528 -16 528
WIRE 64 560 64 528
FLAG -480 240 0
FLAG 64 560 0
SYMBOL res 48 112 R0
SYMATTR InstName R1
SYMATTR Value 500
SYMBOL voltage -608 48 R0
WINDOW 123 0 0 Left 0
WINDOW 39 0 0 Left 0
SYMATTR InstName V1
SYMATTR Value SINE(0 230 50)
SYMBOL voltage -608 176 R0
WINDOW 123 0 0 Left 0
WINDOW 39 0 0 Left 0
SYMATTR InstName V2
SYMATTR Value SINE(0 230 50)
SYMBOL diode -272 -16 R180
WINDOW 0 24 64 Left 2
WINDOW 3 24 0 Left 2
SYMATTR InstName D1
SYMBOL diode -112 -16 R180
WINDOW 0 24 64 Left 2
WINDOW 3 24 0 Left 2
SYMATTR InstName D2
SYMBOL diode -240 464 R180
WINDOW 0 24 64 Left 2
WINDOW 3 24 0 Left 2
SYMATTR InstName D3
SYMBOL diode -64 464 R180
WINDOW 0 24 64 Left 2
WINDOW 3 24 0 Left 2
SYMATTR InstName D4
SYMBOL cap -32 64 R0
SYMATTR InstName C1
SYMATTR Value 470µ
TEXT -640 584 Left 2 !.tran 0.25
