Version 4
SHEET 1 880 680
WIRE 704 -16 608 -16
WIRE 336 48 -48 48
WIRE 400 48 336 48
WIRE 704 64 704 -16
WIRE -48 112 -48 48
WIRE 400 112 400 48
WIRE 368 128 272 128
WIRE 400 128 368 128
WIRE 608 128 608 -16
WIRE 608 128 464 128
WIRE 704 176 704 144
WIRE 704 176 560 176
WIRE 784 176 720 176
WIRE -48 208 -48 192
WIRE 224 208 -48 208
WIRE 560 224 560 176
WIRE 560 224 304 224
WIRE 784 224 784 176
WIRE 272 256 272 128
WIRE 272 256 -48 256
WIRE 336 256 336 48
WIRE 416 256 336 256
WIRE -48 272 -48 256
WIRE 368 272 368 128
WIRE 416 272 368 272
WIRE 720 272 720 176
WIRE 720 272 480 272
WIRE 224 320 224 208
WIRE 304 320 304 224
WIRE 304 320 224 320
WIRE 304 336 304 320
WIRE 784 336 784 304
WIRE 784 336 304 336
WIRE 784 352 784 336
WIRE -48 384 -48 352
WIRE 224 384 224 320
WIRE 224 384 -48 384
WIRE 304 400 304 336
FLAG 304 400 0
SYMBOL voltage -48 96 R0
WINDOW 123 0 0 Left 0
WINDOW 39 0 0 Left 0
SYMATTR InstName V1
SYMATTR Value PULSE(0 1 0 1ns 1ns 1ms 2ms)
SYMBOL voltage -48 256 R0
WINDOW 123 0 0 Left 0
WINDOW 39 0 0 Left 0
SYMATTR InstName V2
SYMATTR Value PULSE(0 1 0 1ns 1ns 2ms 4ms)
SYMBOL res 688 48 R0
SYMATTR InstName R1
SYMATTR Value 440
SYMBOL res 768 208 R0
SYMATTR InstName R2
SYMATTR Value 440
SYMBOL Digital\\xor 448 80 R0
SYMATTR InstName A1
SYMBOL Digital\\and 448 224 R0
SYMATTR InstName A2
TEXT -80 424 Left 2 !.tran 4ms
