Version 4
SHEET 1 880 680
WIRE -16 48 -192 48
WIRE -192 64 -192 48
WIRE -16 64 -192 64
WIRE 192 80 48 80
WIRE 192 112 192 80
WIRE -192 128 -192 64
WIRE 96 208 -192 208
WIRE 192 208 192 192
WIRE 192 208 96 208
WIRE 96 224 96 208
FLAG 96 224 0
SYMBOL res 176 96 R0
SYMATTR InstName R1
SYMATTR Value 1k
SYMBOL Digital\\and 16 0 R0
SYMATTR InstName A1
SYMBOL voltage -192 112 R0
WINDOW 3 37 56 Left 1
WINDOW 123 0 0 Left 0
WINDOW 39 0 0 Left 0
SYMATTR InstName V1
SYMATTR Value PULSE(0 5 0 1ns 1ns 1s 2s 1)
TEXT -104 -8 Left 2 ;NAND AS NOT GATE
TEXT -226 248 Left 2 !.tran 2s
