Version 4
SHEET 1 880 680
WIRE 208 32 -32 32
WIRE 208 48 112 48
WIRE 400 80 272 80
WIRE 608 80 464 80
WIRE -32 96 -32 32
WIRE 112 96 112 48
WIRE 272 96 272 80
WIRE 400 96 272 96
WIRE 608 96 608 80
WIRE -32 208 -32 176
WIRE 112 208 112 176
WIRE 112 208 -32 208
WIRE 304 208 112 208
WIRE 608 208 608 176
WIRE 608 208 304 208
WIRE 304 240 304 208
FLAG 304 240 0
SYMBOL Digital\\and 240 0 R0
SYMATTR InstName A1
SYMBOL Digital\\and 432 0 R0
SYMATTR InstName A2
SYMBOL res 592 80 R0
SYMATTR InstName R1
SYMATTR Value 1k
SYMBOL voltage 112 80 R0
WINDOW 3 24 96 Left 1
WINDOW 123 0 0 Left 0
WINDOW 39 0 0 Left 0
SYMATTR InstName V1
SYMATTR Value PULSE(0 5 0 1ns 1ns 2s 4s 1)
SYMBOL voltage -32 80 R0
WINDOW 3 -7 151 Left 1
WINDOW 123 0 0 Left 0
WINDOW 39 0 0 Left 0
SYMATTR InstName V2
SYMATTR Value PULSE(0 5 0 1ns 1ns 1s 2s 2)
TEXT 208 -16 Left 2 ;NAND AS AND
TEXT 128 16 Left 2 ;A
TEXT 128 64 Left 2 ;B
TEXT 304 64 Left 2 ;(AB)'
TEXT 440 112 Left 2 ;((AB)')'=AB
TEXT -66 264 Left 2 !.tran 4s
