Version 4
SHEET 1 880 680
WIRE 80 -112 -16 -112
WIRE 240 -112 80 -112
WIRE 240 -64 224 -64
WIRE 352 -64 304 -64
WIRE 464 -16 416 -16
WIRE 80 0 80 -112
WIRE 144 0 80 0
WIRE 144 32 112 32
WIRE 224 48 224 -64
WIRE 224 48 208 48
WIRE 224 96 224 48
WIRE 272 96 224 96
WIRE 112 112 112 32
WIRE 272 112 112 112
WIRE 352 112 352 0
WIRE 352 112 336 112
WIRE -16 128 -16 -112
WIRE 112 128 112 112
WIRE 464 192 464 -16
WIRE -16 272 -16 208
WIRE 112 272 112 208
WIRE 112 272 -16 272
WIRE 256 272 112 272
WIRE 464 272 256 272
WIRE 256 304 256 272
FLAG 256 304 0
SYMBOL Digital\\or 272 -144 R0
SYMATTR InstName A1
SYMBOL Digital\\or 384 -96 R0
SYMATTR InstName A2
SYMBOL res 448 176 R0
SYMATTR InstName R1
SYMATTR Value 1k
SYMBOL voltage -16 112 R0
WINDOW 3 -59 176 VLeft 1
SYMATTR InstName V1
SYMATTR Value PULSE(0 5 0 1ns 1ns 2s 4s 1 )
SYMBOL voltage 112 112 R0
WINDOW 3 16 106 Left 1
SYMATTR InstName V2
SYMATTR Value PULSE(0 5 0 1ns 1ns 1s 2s 2 )
SYMBOL Digital\\or 176 -32 R0
SYMATTR InstName A3
SYMBOL Digital\\or 304 32 R0
SYMATTR InstName A4
TEXT 384 -120 Left 2 ;NOR AS XNOR
TEXT -86 328 Left 2 !.tran 4s
