Version 4
SHEET 1 880 680
WIRE 160 -32 -48 -32
WIRE -48 -16 -48 -32
WIRE 160 -16 -48 -16
WIRE 336 16 224 16
WIRE 496 32 432 32
WIRE 432 48 432 32
WIRE 496 48 432 48
WIRE 432 64 432 48
WIRE 432 64 400 64
WIRE 624 64 560 64
WIRE 160 128 80 128
WIRE 80 144 80 128
WIRE 160 144 80 144
WIRE 336 160 336 80
WIRE 336 160 224 160
WIRE -48 208 -48 -16
WIRE 80 208 80 144
WIRE 624 256 624 64
WIRE -48 352 -48 288
WIRE 80 352 80 288
WIRE 80 352 -48 352
WIRE 224 352 80 352
WIRE 624 352 624 336
WIRE 624 352 224 352
WIRE 224 384 224 352
FLAG 224 384 0
SYMBOL Digital\\or 368 -16 R0
SYMATTR InstName A1
SYMBOL Digital\\or 528 -16 R0
SYMATTR InstName A2
SYMBOL res 608 240 R0
SYMATTR InstName R1
SYMATTR Value 1k
SYMBOL voltage -48 192 R0
WINDOW 3 -59 176 VLeft 1
SYMATTR Value PULSE(0 5 0 1ns 1ns 2s 4s 1 )
SYMATTR InstName V1
SYMBOL voltage 80 192 R0
WINDOW 3 16 106 Left 1
SYMATTR Value PULSE(0 5 0 1ns 1ns 1s 2s 2 )
SYMATTR InstName V2
SYMBOL Digital\\or 192 -64 R0
SYMATTR InstName A3
SYMBOL Digital\\or 192 80 R0
SYMATTR InstName A4
TEXT 352 -40 Left 2 ;NOR AS NAND
TEXT -120 408 Left 2 !.tran 4s
