Version 4
SHEET 1 880 680
WIRE 32 96 -16 96
WIRE 80 96 32 96
WIRE 32 128 32 96
WIRE 80 128 32 128
WIRE 336 128 144 128
WIRE -16 144 -16 96
WIRE -16 240 -16 224
WIRE 112 240 -16 240
WIRE 336 240 336 208
WIRE 336 240 112 240
WIRE 112 256 112 240
FLAG 112 256 0
SYMBOL Digital\\and 112 48 R0
SYMATTR InstName A1
SYMBOL res 320 112 R0
SYMATTR InstName R1
SYMATTR Value 1000
SYMBOL voltage -16 128 R0
SYMATTR InstName V1
