Version 4
SHEET 1 880 680
WIRE 128 96 -448 96
WIRE 128 112 16 112
WIRE 336 112 192 112
WIRE -448 176 -448 96
WIRE 16 192 16 112
WIRE 336 192 336 112
WIRE -448 320 -448 256
WIRE 16 320 16 272
WIRE 16 320 -448 320
WIRE 144 320 16 320
WIRE 336 320 336 272
WIRE 336 320 144 320
WIRE 144 336 144 320
FLAG 144 336 0
SYMBOL Digital\\or 160 64 R0
SYMATTR InstName A1
SYMBOL voltage 16 176 R0
SYMATTR InstName V2
SYMATTR Value 0
SYMBOL voltage -448 160 R0
WINDOW 123 0 0 Left 0
WINDOW 39 0 0 Left 0
SYMATTR InstName V1
SYMATTR Value PULSE(0 1 2m 1n 2m 4m)
SYMBOL res 320 176 R0
SYMATTR InstName R1
SYMATTR Value 1000
TEXT 40 16 Left 2 ;OR GATE A+0=A
TEXT -146 360 Left 2 !.tran 4ms
