Version 4
SHEET 1 880 680
WIRE 80 -224 -144 -224
WIRE 400 -208 144 -208
WIRE 80 -192 32 -192
WIRE 400 -128 400 -208
WIRE 448 -128 400 -128
WIRE 656 -128 512 -128
WIRE -224 -96 -224 -224
WIRE 32 -96 32 -192
WIRE 32 -96 -144 -96
WIRE 448 -96 400 -96
WIRE 80 0 0 0
WIRE 208 0 144 0
WIRE 208 16 208 0
WIRE 272 16 208 16
WIRE 400 16 400 -96
WIRE 400 16 336 16
WIRE -224 32 -224 -96
WIRE 0 32 0 0
WIRE 0 32 -144 32
WIRE 80 32 32 32
WIRE 720 32 720 -128
WIRE -224 160 -224 32
WIRE 32 160 32 32
WIRE 32 160 -144 160
WIRE -224 240 -224 160
WIRE 352 240 -224 240
WIRE 720 240 720 112
WIRE 720 240 352 240
WIRE 352 256 352 240
FLAG 352 256 0
SYMBOL voltage -128 -224 R90
WINDOW 0 -32 56 VBottom 2
WINDOW 3 32 56 VTop 2
SYMATTR InstName A
SYMATTR Value 1
SYMBOL voltage -128 -96 R90
WINDOW 0 -32 56 VBottom 2
WINDOW 3 32 56 VTop 2
SYMATTR InstName B
SYMATTR Value 1
SYMBOL voltage -128 32 R90
WINDOW 0 -32 56 VBottom 2
WINDOW 3 32 56 VTop 2
SYMATTR InstName C
SYMATTR Value 1
SYMBOL voltage -128 160 R90
WINDOW 0 -32 56 VBottom 2
WINDOW 3 32 56 VTop 2
SYMATTR InstName D
SYMATTR Value 1
SYMBOL Digital\\and 112 -256 R0
SYMATTR InstName A1
SYMBOL Digital\\and 480 -176 R0
SYMATTR InstName A2
SYMBOL Digital\\or 112 -48 R0
SYMATTR InstName A3
SYMBOL Digital\\inv 272 -48 R0
SYMATTR InstName A4
SYMBOL Digital\\inv 656 -192 R0
SYMATTR InstName A5
SYMBOL res 704 16 R0
SYMATTR InstName R1
SYMATTR Value 1K
TEXT 472 40 Left 2 ;GOKUL H
TEXT 464 80 Left 2 ;20BCE1211
TEXT 432 120 Left 2 ;LOGIC DIAGRAM 1
TEXT -230 280 Left 2 !.op
